docs/ieee8500_v42_balanced_case/CUSTOMER_POWER_CONSERVATION.csv
customer_id,bus,primary_phase,status,unbal_load_a,unbal_load_b,unbal_P_a_kw,unbal_P_b_kw,unbal_Q_a_kvar,unbal_Q_b_kvar,unbal_P_sum_kw,unbal_Q_sum_kvar,balanced_P_kw,balanced_Q_kvar,P_difference_kw,Q_difference_kvar,balanced_nominal_each_leg_P_kw,balanced_nominal_each_leg_Q_kvar,customer_PF,model,Vminpu,Vmaxpu,balanced_phases,balanced_kV,balanced_connection,PASS
138236b0,sx2673305b.1.2,B,variable,138236b0a,138236b0b,0.696180467009544,3.19381953299046,0.17447927184602238,0.8004466268889721,3.890000000000004,0.9749258987349945,3.89,0.9749258987349935,-3.9968028886505635e-15,-9.992007221626409e-16,1.945,0.48746294936749673,0.97,1,0.88,1.05,2,0.208,wye,True
138237b0,sx3048196b.1.2,B,variable,138237b0a,138237b0b,2.30339207649231,3.53660792350769,0.577284470517565,0.8863574957066924,5.84,1.4636419662242575,5.84,1.4636419662242575,0.0,0.0,2.92,0.7318209831121287,0.97,1,0.88,1.05,2,0.208,wye,True
138258c0,sx2991911c.1.2,C,variable,138258c0a,138258c0b,0.932027059793472,5.16797294020653,0.23358799972094707,1.2952161088352128,6.100000000000002,1.52880410855616,6.1,1.5288041085561592,-2.6645352591003757e-15,-6.661338147750939e-16,3.05,0.7644020542780796,0.97,1,0.88,1.05,2,0.208,wye,True
138259c0,sx2973158c.1.2,C,variable,138259c0a,138259c0b,0.616065526008606,5.48393447399139,0.15440057496750298,1.3744035335886553,6.099999999999996,1.5288041085561583,6.1,1.5288041085561592,3.552713678800501e-15,8.881784197001252e-16,3.05,0.7644020542780796,0.97,1,0.88,1.05,2,0.208,wye,True
138260a0,sx3048208a.1.2,A,variable,138260a0a,138260a0b,1.45716053724289,3.86283946275711,0.36519885510866074,0.9681188264517929,5.32,1.3333176815604537,5.32,1.3333176815604537,0.0,0.0,2.66,0.6666588407802269,0.97,1,0.88,1.05,2,0.208,wye,True
138262a0,sx3029502a.1.2,A,variable,138262a0a,138262a0b,11.3558540940285,6.38414590597153,2.8460453106745986,1.600017785355944,17.74000000000003,4.446063096030542,17.74,4.446063096030535,-3.197442310920451e-14,-7.105427357601002e-15,8.87,2.2230315480152676,0.97,1,0.88,1.05,2,0.208,wye,True
138264b0,sx3104125b.1.2,B,variable,138264b0a,138264b0b,0.721058705449104,9.0089412945509,0.1807143461312747,2.257853518827977,9.730000000000004,2.4385678649592517,9.73,2.438567864959251,-3.552713678800501e-15,-8.881784197001252e-16,4.865,1.2192839324796254,0.97,1,0.88,1.05,2,0.208,wye,True
138265a0,sx3160107a.1.2,A,variable,138265a0a,138265a0b,5.42583449840546,3.44416550159454,1.3598423071324615,0.8631892408828062,8.870000000000001,2.2230315480152676,8.87,2.2230315480152676,-1.7763568394002505e-15,0.0,4.435,1.1115157740076338,0.97,1,0.88,1.05,2,0.208,wye,True
138294b0,sx2785516b.1.2,B,variable,138294b0a,138294b0b,0.979905409812927,4.86009459018707,0.24558744533088686,1.21805452089337,5.839999999999997,1.4636419662242568,5.84,1.4636419662242575,2.6645352591003757e-15,6.661338147750939e-16,2.92,0.7318209831121287,0.97,1,0.88,1.05,2,0.208,wye,True
138313a0,sx3141400a.1.2,A,variable,138313a0a,138313a0b,3.3028557240963,0.247144275903702,0.8277736722896151,0.06194019416519945,3.550000000000002,0.8897138664548145,3.55,0.889713866454814,-2.220446049250313e-15,-5.551115123125783e-16,1.775,0.444856933227407,0.97,1,0.88,1.05,2,0.208,wye,True
138342c0,sx2897775c.1.2,C,variable,138342c0a,138342c0b,5.46709477722645,4.70290522277355,1.3701831077524127,1.1786591519223644,10.17,2.5488422596747773,10.17,2.5488422596747773,0.0,0.0,5.085,1.2744211298373886,0.97,1,0.88,1.05,2,0.208,wye,True
138343c0,sx3010565c.1.2,C,variable,138343c0a,138343c0b,1.90731858491898,2.16268141508102,0.478019096549124,0.5420190545694937,4.07,1.0200381511186176,4.07,1.0200381511186178,0.0,2.220446049250313e-16,2.035,0.5100190755593089,0.97,1,0.88,1.05,2,0.208,wye,True
138346c0,sx2916609c.1.2,C,variable,138346c0a,138346c0b,0.640997141599655,5.45900285840034,0.16064902682791915,1.3681550817282389,6.099999999999995,1.528804108556158,6.1,1.5288041085561592,4.440892098500626e-15,1.3322676295501878e-15,3.05,0.7644020542780796,0.97,1,0.88,1.05,2,0.208,wye,True
138371c0,sx2879073c.1.2,C,variable,138371c0a,138371c0b,5.15049561262131,0.949504387378693,1.290835877651792,0.23796823090436803,6.100000000000003,1.5288041085561601,6.1,1.5288041085561592,-3.552713678800501e-15,-8.881784197001252e-16,3.05,0.7644020542780796,0.97,1,0.88,1.05,2,0.208,wye,True
138372c0,sx3104126c.1.2,C,variable,138372c0a,138372c0b,3.53355606496334,0.536443935036659,0.8855926278572933,0.13444552326132422,4.0699999999999985,1.0200381511186176,4.07,1.0200381511186178,1.7763568394002505e-15,2.220446049250313e-16,2.035,0.5100190755593089,0.97,1,0.88,1.05,2,0.208,wye,True
138373c0,sx3029503c.1.2,C,variable,138373c0a,138373c0b,3.10627183914185,2.99372816085815,0.7785051065528454,0.7502990020033138,6.1,1.5288041085561592,6.1,1.5288041085561592,0.0,0.0,3.05,0.7644020542780796,0.97,1,0.88,1.05,2,0.208,wye,True
138374c0,sx2691950c.1.2,C,variable,138374c0a,138374c0b,1.3819062012434,8.7880937987566,0.34633834067215485,2.2025039190026225,10.17,2.5488422596747773,10.17,2.5488422596747773,0.0,0.0,5.085,1.2744211298373886,0.97,1,0.88,1.05,2,0.208,wye,True
138379c0,sx2691951c.1.2,C,variable,138379c0a,138379c0b,5.53433520913124,4.63566479086876,1.3870351484994838,1.1618071111752934,10.17,2.5488422596747773,10.17,2.5488422596747773,0.0,0.0,5.085,1.2744211298373886,0.97,1,0.88,1.05,2,0.208,wye,True
138380c0,sx2879076c.1.2,C,variable,138380c0a,138380c0b,2.61281781375408,1.45718218624592,0.6548338702583539,0.3652042808602638,4.07,1.0200381511186176,4.07,1.0200381511186178,0.0,2.220446049250313e-16,2.035,0.5100190755593089,0.97,1,0.88,1.05,2,0.208,wye,True
138404c0,sx2841630c.1.2,C,variable,138404c0a,138404c0b,8.31935176134109,1.85064823865891,2.085026090698718,0.46381616897605926,10.170000000000002,2.5488422596747773,10.17,2.5488422596747773,-1.7763568394002505e-15,0.0,5.085,1.2744211298373886,0.97,1,0.88,1.05,2,0.208,wye,True
138405c0,sx2841629c.1.2,C,variable,138405c0a,138405c0b,8.68428897500038,6.57571102499962,2.176487977847465,1.6480285297864676,15.26,3.8245165076339327,15.26,3.824516507633933,0.0,4.440892098500626e-16,7.63,1.9122582538169666,0.97,1,0.88,1.05,2,0.208,wye,True
138412c0,sx2785523c.1.2,C,variable,138412c0a,138412c0b,2.53578065633774,3.56421934366226,0.6355265386567822,0.8932775698993771,6.1,1.5288041085561592,6.1,1.5288041085561592,0.0,0.0,3.05,0.7644020542780796,0.97,1,0.88,1.05,2,0.208,wye,True
138413c0,sx3216347c.1.2,C,variable,138413c0a,138413c0b,4.66030400395393,1.43969599604607,1.167982280059916,0.3608218284962433,6.1,1.5288041085561592,6.1,1.5288041085561592,0.0,0.0,3.05,0.7644020542780796,0.97,1,0.88,1.05,2,0.208,wye,True
138416c0,sx3141388c.1.2,C,variable,138416c0a,138416c0b,2.00353498935699,2.06646501064301,0.5021332005516372,0.5179049505669805,4.07,1.0200381511186176,4.07,1.0200381511186178,0.0,2.220446049250313e-16,2.035,0.5100190755593089,0.97,1,0.88,1.05,2,0.208,wye,True
138464c0,sx3066801c.1.2,C,variable,138464c0a,138464c0b,2.74935719311237,1.32064280688763,0.6890538643801019,0.33098428673851593,4.07,1.0200381511186178,4.07,1.0200381511186178,0.0,0.0,2.035,0.5100190755593089,0.97,1,0.88,1.05,2,0.208,wye,True
138465c0,sx2879055c.1.2,C,variable,138465c0a,138465c0b,3.90297761797905,0.16702238202095,0.9781783963883777,0.041859754730240124,4.07,1.0200381511186178,4.07,1.0200381511186178,0.0,0.0,2.035,0.5100190755593089,0.97,1,0.88,1.05,2,0.208,wye,True
138466c0,sx2973144c.1.2,C,variable,138466c0a,138466c0b,8.10096781075001,2.06903218924999,2.0302939135009526,0.5185483461738245,10.17,2.5488422596747773,10.17,2.5488422596747773,0.0,0.0,5.085,1.2744211298373886,0.97,1,0.88,1.05,2,0.208,wye,True
138469c0,sx2785518c.1.2,C,variable,138469c0a,138469c0b,4.01072108745575,2.08927891254425,1.0051814552090457,0.5236226533471138,6.1000000000000005,1.5288041085561594,6.1,1.5288041085561592,-8.881784197001252e-16,-2.220446049250313e-16,3.05,0.7644020542780796,0.97,1,0.88,1.05,2,0.208,wye,True
138470c0,sx2766717c.1.2,C,variable,138470c0a,138470c0b,2.60895431101322,1.46104568898678,0.65386558519874,0.3661725659198777,4.07,1.0200381511186176,4.07,1.0200381511186178,0.0,2.220446049250313e-16,2.035,0.5100190755593089,0.97,1,0.88,1.05,2,0.208,wye,True
138472c0,sx2673309c.1.2,C,variable,138472c0a,138472c0b,9.44700153708458,0.72299846291542,2.3676417644969274,0.18120049517784953,10.17,2.548842259674777,10.17,2.5488422596747773,0.0,4.440892098500626e-16,5.085,1.2744211298373886,0.97,1,0.88,1.05,2,0.208,wye,True
138560a0,sx3104113a.1.2,A,variable,138560a0a,138560a0b,4.76630929410458,4.10369070589542,1.194549710078113,1.0284818379371548,8.870000000000001,2.2230315480152676,8.87,2.2230315480152676,-1.7763568394002505e-15,0.0,4.435,1.1115157740076338,0.97,1,0.88,1.05,2,0.208,wye,True
138561a0,sx3104121a.1.2,A,variable,138561a0a,138561a0b,6.50350156784058,2.36649843215942,1.6299311339206726,0.5931004140945951,8.87,2.2230315480152676,8.87,2.2230315480152676,0.0,0.0,4.435,1.1115157740076338,0.97,1,0.88,1.05,2,0.208,wye,True
138562a0,sx2673310a.1.2,A,variable,138562a0a,138562a0b,6.82647125542164,2.04352874457836,1.7108749675785453,0.5121565804367225,8.870000000000001,2.2230315480152676,8.87,2.2230315480152676,-1.7763568394002505e-15,0.0,4.435,1.1115157740076338,0.97,1,0.88,1.05,2,0.208,wye,True
138563a0,sx2916627a.1.2,A,variable,138563a0a,138563a0b,6.43954766631126,2.43045233368874,1.6139027753278494,0.6091287726874183,8.87,2.2230315480152676,8.87,2.2230315480152676,0.0,0.0,4.435,1.1115157740076338,0.97,1,0.88,1.05,2,0.208,wye,True
138564a0,sx2804283a.1.2,A,variable,138564a0a,138564a0b,7.51748701274395,1.35251298725605,1.8840598411640197,0.3389717068512481,8.87,2.2230315480152676,8.87,2.2230315480152676,0.0,0.0,4.435,1.1115157740076338,0.97,1,0.88,1.05,2,0.208,wye,True
138565a0,sx3104122a.1.2,A,variable,138565a0a,138565a0b,8.4127882361412,0.457211763858796,2.108443478659933,0.11458806935533375,8.869999999999996,2.2230315480152667,8.87,2.2230315480152676,3.552713678800501e-15,8.881784197001252e-16,4.435,1.1115157740076338,0.97,1,0.88,1.05,2,0.208,wye,True
138566a0,sx2785519a.1.2,A,variable,138566a0a,138566a0b,8.3076517778635,0.562348222136498,2.0820937984346886,0.14093774958057867,8.869999999999997,2.223031548015267,8.87,2.2230315480152676,1.7763568394002505e-15,4.440892098500626e-16,4.435,1.1115157740076338,0.97,1,0.88,1.05,2,0.208,wye,True
138567a0,sx2748129a.1.2,A,variable,138567a0a,138567a0b,0.489392793178558,12.8106072068214,0.12265339555887773,3.210640808342246,13.299999999999958,3.333294203901124,13.3,3.3332942039011346,4.263256414560601e-14,1.0658141036401503e-14,6.65,1.6666471019505673,0.97,1,0.88,1.05,2,0.208,wye,True
138569a0,sx2973151a.1.2,A,variable,138569a0a,138569a0b,3.8825451207161,1.43745487928391,0.9730575298697448,0.3602601516907114,5.32000000000001,1.3333176815604562,5.32,1.3333176815604537,-9.769962616701378e-15,-2.4424906541753444e-15,2.66,0.6666588407802269,0.97,1,0.88,1.05,2,0.208,wye,True
138570a0,sx2748146a.1.2,A,variable,138570a0a,138570a0b,0.57196382522583,4.74803617477417,0.14334764687717147,1.1899700346832822,5.32,1.3333176815604537,5.32,1.3333176815604537,0.0,0.0,2.66,0.6666588407802269,0.97,1,0.88,1.05,2,0.208,wye,True
138571a0,sx2991913a.1.2,A,variable,138571a0a,138571a0b,1.55185956716537,3.76814043283463,0.38893266921059033,0.9443850123498635,5.32,1.333317681560454,5.32,1.3333176815604537,0.0,-2.220446049250313e-16,2.66,0.6666588407802269,0.97,1,0.88,1.05,2,0.208,wye,True
138573a0,sx3235253a.1.2,A,variable,138573a0a,138573a0b,6.42777684092522,2.44222315907478,1.6109527284079683,0.6120788196072994,8.87,2.2230315480152676,8.87,2.2230315480152676,0.0,0.0,4.435,1.1115157740076338,0.97,1,0.88,1.05,2,0.208,wye,True
138574a0,sx2991907a.1.2,A,variable,138574a0a,138574a0b,5.82470866858959,3.04529133141041,1.4598095973249905,0.7632219506902773,8.870000000000001,2.2230315480152676,8.87,2.2230315480152676,-1.7763568394002505e-15,0.0,4.435,1.1115157740076338,0.97,1,0.88,1.05,2,0.208,wye,True
138581a0,sx2879064a.1.2,A,variable,138581a0a,138581a0b,5.37039572954178,3.49960427045822,1.3459480419501517,0.877083506065116,8.870000000000001,2.2230315480152676,8.87,2.2230315480152676,-1.7763568394002505e-15,0.0,4.435,1.1115157740076338,0.97,1,0.88,1.05,2,0.208,wye,True
138585c0,sx3197637c.1.2,C,variable,138585c0a,138585c0b,0.863561273217201,3.2064387267828,0.21642885614499097,0.8036092949736271,4.070000000000001,1.020038151118618,4.07,1.0200381511186178,-8.881784197001252e-16,-2.220446049250313e-16,2.035,0.5100190755593089,0.97,1,0.88,1.05,2,0.208,wye,True
138586c0,sx2860487c.1.2,C,variable,138586c0a,138586c0b,5.91896427869797,0.181035721302033,1.4834322799460002,0.045371828610159974,6.100000000000003,1.5288041085561601,6.1,1.5288041085561592,-3.552713678800501e-15,-8.881784197001252e-16,3.05,0.7644020542780796,0.97,1,0.88,1.05,2,0.208,wye,True
138641c0,sx2841638c.1.2,C,variable,138641c0a,138641c0b,0.905626183748245,5.19437381625175,0.22697131648038563,1.3018327920757726,6.099999999999995,1.5288041085561583,6.1,1.5288041085561592,4.440892098500626e-15,8.881784197001252e-16,3.05,0.7644020542780796,0.97,1,0.88,1.05,2,0.208,wye,True
138642a0,sx3235256a.1.2,A,variable,138642a0a,138642a0b,3.69108180999756,1.62891819000244,0.92507230100675,0.4082453805537038,5.32,1.3333176815604537,5.32,1.3333176815604537,0.0,0.0,2.66,0.6666588407802269,0.97,1,0.88,1.05,2,0.208,wye,True
138644a0,sx3197630a.1.2,A,variable,138644a0a,138644a0b,4.48774401962757,4.38225598037243,1.124734671369666,1.0982968766456018,8.870000000000001,2.2230315480152676,8.87,2.2230315480152676,-1.7763568394002505e-15,0.0,4.435,1.1115157740076338,0.97,1,0.88,1.05,2,0.208,wye,True
138645b0,sx3104120b.1.2,B,variable,138645b0a,138645b0b,3.86900570869446,1.97099429130554,0.9696642333572665,0.49397773286699104,5.84,1.4636419662242575,5.84,1.4636419662242575,0.0,0.0,2.92,0.7318209831121287,0.97,1,0.88,1.05,2,0.208,wye,True
138646a0,sx2804251a.1.2,A,variable,138646a0a,138646a0b,2.13520937860012,1.41479062139988,0.5351339132182799,0.35457995323653413,3.55,0.889713866454814,3.55,0.889713866454814,0.0,0.0,1.775,0.444856933227407,0.97,1,0.88,1.05,2,0.208,wye,True
138647c0,sx3254210c.1.2,C,variable,138647c0a,138647c0b,6.07667944431305,0.0233205556869507,1.522959426367959,0.005844682188200482,6.1000000000000005,1.5288041085561594,6.1,1.5288041085561592,-8.881784197001252e-16,-2.220446049250313e-16,3.05,0.7644020542780796,0.97,1,0.88,1.05,2,0.208,wye,True
138649a0,sx3048206a.1.2,A,variable,138649a0a,138649a0b,7.67008161604404,1.19991838395596,1.922303653699868,0.30072789431539976,8.870000000000001,2.223031548015268,8.87,2.2230315480152676,-1.7763568394002505e-15,-4.440892098500626e-16,4.435,1.1115157740076338,0.97,1,0.88,1.05,2,0.208,wye,True
138650c0,sx2710510c.1.2,C,variable,138650c0a,138650c0b,0.156969414949417,3.91303058505058,0.03934024368726644,0.9806979074313505,4.069999999999997,1.020038151118617,4.07,1.0200381511186178,3.552713678800501e-15,8.881784197001252e-16,2.035,0.5100190755593089,0.97,1,0.88,1.05,2,0.208,wye,True
138651c0,sx3197628c.1.2,C,variable,138651c0a,138651c0b,3.72313893377781,6.44686106622219,0.9331065735549039,1.615735686119873,10.17,2.548842259674777,10.17,2.5488422596747773,0.0,4.440892098500626e-16,5.085,1.2744211298373886,0.97,1,0.88,1.05,2,0.208,wye,True
138652c0,sx2766718c.1.2,C,variable,138652c0a,138652c0b,4.17881947517395,11.081180524826,1.0473108823869555,2.777205625246965,15.259999999999948,3.8245165076339203,15.26,3.824516507633933,5.1514348342607263e-14,1.2878587085651816e-14,7.63,1.9122582538169666,0.97,1,0.88,1.05,2,0.208,wye,True
138655a0,sx3010556a.1.2,A,variable,138655a0a,138655a0b,3.01712541341782,2.30287458658218,0.7561629062397318,0.5771547753207219,5.32,1.3333176815604537,5.32,1.3333176815604537,0.0,0.0,2.66,0.6666588407802269,0.97,1,0.88,1.05,2,0.208,wye,True
138679a0,sx2710520a.1.2,A,variable,138679a0a,138679a0b,3.05977079868317,2.26022920131683,0.7668508472568839,0.5664668343035699,5.32,1.333317681560454,5.32,1.3333176815604537,0.0,-2.220446049250313e-16,2.66,0.6666588407802269,0.97,1,0.88,1.05,2,0.208,wye,True
138680a0,sx2710521a.1.2,A,variable,138680a0a,138680a0b,0.664908358454704,8.20509164154529,0.16664174265883328,2.056389805356433,8.869999999999994,2.2230315480152663,8.87,2.2230315480152676,5.329070518200751e-15,1.3322676295501878e-15,4.435,1.1115157740076338,0.97,1,0.88,1.05,2,0.208,wye,True
138684a0,sx3085396a.1.2,A,variable,138684a0a,138684a0b,3.91537283182144,4.95462716817856,0.9812849298061936,1.2417466182090742,8.870000000000001,2.2230315480152676,8.87,2.2230315480152676,-1.7763568394002505e-15,0.0,4.435,1.1115157740076338,0.97,1,0.88,1.05,2,0.208,wye,True
138685a0,sx3122813a.1.2,A,variable,138685a0a,138685a0b,2.29734759092331,3.02265240907669,0.57576957963691,0.7575481019235437,5.32,1.3333176815604537,5.32,1.3333176815604537,0.0,0.0,2.66,0.6666588407802269,0.97,1,0.88,1.05,2,0.208,wye,True
138716c0,sx3254219c.1.2,C,variable,138716c0a,138716c0b,1.3092828977108,8.8607171022892,0.3281372251282926,2.2207050345464845,10.17,2.5488422596747773,10.17,2.5488422596747773,0.0,0.0,5.085,1.2744211298373886,0.97,1,0.88,1.05,2,0.208,wye,True
138717c0,sx3254220c.1.2,C,variable,138717c0a,138717c0b,2.24819816172123,7.92180183827877,0.5634515715553805,1.9853906881193966,10.17,2.5488422596747773,10.17,2.5488422596747773,0.0,0.0,5.085,1.2744211298373886,0.97,1,0.88,1.05,2,0.208,wye,True
138718c0,sx3104134c.1.2,C,variable,138718c0a,138718c0b,8.46614170074463,1.70385829925537,2.121815117330659,0.427027142344118,10.17,2.5488422596747773,10.17,2.5488422596747773,0.0,0.0,5.085,1.2744211298373886,0.97,1,0.88,1.05,2,0.208,wye,True
138719a0,sx2860490a.1.2,A,variable,138719a0a,138719a0b,0.183259337544441,8.68674066245556,0.04592911937200351,2.177102428643264,8.870000000000001,2.2230315480152676,8.87,2.2230315480152676,-1.7763568394002505e-15,0.0,4.435,1.1115157740076338,0.97,1,0.88,1.05,2,0.208,wye,True
138720a0,sx3254218a.1.2,A,variable,138720a0a,138720a0b,2.89486701369286,5.97513298630714,0.7255220629930071,1.4975094850222606,8.870000000000001,2.2230315480152676,8.87,2.2230315480152676,-1.7763568394002505e-15,0.0,4.435,1.1115157740076338,0.97,1,0.88,1.05,2,0.208,wye,True
138751b0,sx3066818b.1.2,B,variable,138751b0a,138751b0b,9.59230809271336,0.137691907286644,2.4040590201109313,0.03450884484832051,9.730000000000004,2.4385678649592517,9.73,2.438567864959251,-3.552713678800501e-15,-8.881784197001252e-16,4.865,1.2192839324796254,0.97,1,0.88,1.05,2,0.208,wye,True
138752b0,sx2785528b.1.2,B,variable,138752b0a,138752b0b,4.17620378494263,1.66379621505737,1.046655328620996,0.4169866376032614,5.84,1.4636419662242575,5.84,1.4636419662242575,0.0,0.0,2.92,0.7318209831121287,0.97,1,0.88,1.05,2,0.208,wye,True
138753b0,sx2748130b.1.2,B,variable,138753b0a,138753b0b,0.89254738509655,8.83745261490345,0.22369346056010855,2.214874404399142,9.73,2.438567864959251,9.73,2.438567864959251,0.0,0.0,4.865,1.2192839324796254,0.97,1,0.88,1.05,2,0.208,wye,True
138754b0,sx3254212b.1.2,B,variable,138754b0a,138754b0b,3.00803367257118,11.5819663274288,0.7538843011970644,2.9027143781200397,14.58999999999998,3.656598679317104,14.59,3.656598679317109,1.9539925233402755e-14,4.884981308350689e-15,7.295,1.8282993396585545,0.97,1,0.88,1.05,2,0.208,wye,True
138755b0,sx2785520b.1.2,B,variable,138755b0a,138755b0b,1.23461380779743,2.65538619220257,0.3094233871870288,0.6655025115479646,3.8899999999999997,0.9749258987349934,3.89,0.9749258987349935,4.440892098500626e-16,1.1102230246251565e-16,1.945,0.48746294936749673,0.97,1,0.88,1.05,2,0.208,wye,True
138769a0,sx2729411a.1.2,A,variable,138769a0a,138769a0b,0.204705214500427,3.34529478549957,0.05130396278215126,0.838409903672662,3.5499999999999967,0.8897138664548132,3.55,0.889713866454814,3.1086244689504383e-15,7.771561172376096e-16,1.775,0.444856933227407,0.97,1,0.88,1.05,2,0.208,wye,True
138770a0,sx2897781a.1.2,A,variable,138770a0a,138770a0b,1.07414735853672,2.47585264146328,0.26920670408617764,0.6205071623686365,3.55,0.8897138664548141,3.55,0.889713866454814,0.0,-1.1102230246251565e-16,1.775,0.444856933227407,0.97,1,0.88,1.05,2,0.208,wye,True
138771a0,sx3197644a.1.2,A,variable,138771a0a,138771a0b,0.574874138832092,4.74512586116791,0.14407704022117807,1.1892406413392762,5.320000000000002,1.3333176815604544,5.32,1.3333176815604537,-1.7763568394002505e-15,-6.661338147750939e-16,2.66,0.6666588407802269,0.97,1,0.88,1.05,2,0.208,wye,True
138776c0,sx3010566c.1.2,C,variable,138776c0a,138776c0b,1.57651792168617,4.52348207831383,0.3951126353911859,1.1336914731649734,6.1,1.5288041085561592,6.1,1.5288041085561592,0.0,0.0,3.05,0.7644020542780796,0.97,1,0.88,1.05,2,0.208,wye,True
138796b0,sx3236011b.1.2,B,variable,138796b0a,138796b0b,3.17862752914429,2.66137247085571,0.796639151823853,0.6670028144004044,5.84,1.4636419662242575,5.84,1.4636419662242575,0.0,0.0,2.92,0.7318209831121287,0.97,1,0.88,1.05,2,0.208,wye,True
138797b0,sx3198358b.1.2,B,variable,138797b0a,138797b0b,2.38206663906574,12.2079333609343,0.5970021745341418,3.059596504782977,14.590000000000039,3.656598679317119,14.59,3.656598679317109,-3.907985046680551e-14,-9.769962616701378e-15,7.295,1.8282993396585545,0.97,1,0.88,1.05,2,0.208,wye,True
138798b0,sx3104859b.1.2,B,variable,138798b0a,138798b0b,4.75561747550964,1.08438252449036,1.1918700877509192,0.2717718784733381,5.84,1.4636419662242572,5.84,1.4636419662242575,0.0,2.220446049250313e-16,2.92,0.7318209831121287,0.97,1,0.88,1.05,2,0.208,wye,True
157715b0,sx2936275b.1.2,B,variable,157715b0a,157715b0b,2.04099854767323,1.84900145232677,0.5115224533180308,0.46340344541696254,3.8899999999999997,0.9749258987349934,3.89,0.9749258987349935,4.440892098500626e-16,1.1102230246251565e-16,1.945,0.48746294936749673,0.97,1,0.88,1.05,2,0.208,wye,True
157716b0,sx3179674b.1.2,B,variable,157716b0a,157716b0b,8.17862984657288,1.55137015342712,2.0497578543935493,0.3888100105657017,9.73,2.438567864959251,9.73,2.438567864959251,0.0,0.0,4.865,1.2192839324796254,0.97,1,0.88,1.05,2,0.208,wye,True
157717b0,sx2748840b.1.2,B,variable,157717b0a,157717b0b,1.39889852046967,4.44110147953033,0.3505970173028138,1.1130449489214436,5.84,1.4636419662242575,5.84,1.4636419662242575,0.0,0.0,2.92,0.7318209831121287,0.97,1,0.88,1.05,2,0.208,wye,True
157718b0,sx3142099b.1.2,B,variable,157718b0a,157718b0b,9.14856792569161,0.581432074308395,2.292847251180727,0.14572061377852533,9.730000000000006,2.438567864959252,9.73,2.438567864959251,-5.329070518200751e-15,-1.3322676295501878e-15,4.865,1.2192839324796254,0.97,1,0.88,1.05,2,0.208,wye,True
207286c0,sx3011298c.1.2,C,variable,207286c0a,207286c0b,1.35406212985516,2.71593787014484,0.33935995858407747,0.6806781925345403,4.07,1.0200381511186178,4.07,1.0200381511186178,0.0,0.0,2.035,0.5100190755593089,0.97,1,0.88,1.05,2,0.208,wye,True
207287b0,sx2711234b.1.2,B,variable,207287b0a,207287b0b,1.06192909479141,8.66807090520859,0.26614451854302146,2.1724233464162293,9.729999999999999,2.438567864959251,9.73,2.438567864959251,1.7763568394002505e-15,0.0,4.865,1.2192839324796254,0.97,1,0.88,1.05,2,0.208,wye,True
207288b0,sx3198355b.1.2,B,variable,207288b0a,207288b0b,2.35699640452862,1.53300359547138,0.5907189814910573,0.38420691724393613,3.89,0.9749258987349934,3.89,0.9749258987349935,0.0,1.1102230246251565e-16,1.945,0.48746294936749673,0.97,1,0.88,1.05,2,0.208,wye,True
207290a0,sx2879773a.1.2,A,variable,207290a0a,207290a0b,5.09814939618111,3.77185060381889,1.2777166791663581,0.9453148688489098,8.870000000000001,2.223031548015268,8.87,2.2230315480152676,-1.7763568394002505e-15,-4.440892098500626e-16,4.435,1.1115157740076338,0.97,1,0.88,1.05,2,0.208,wye,True
207291c0,sx2786274c.1.2,C,variable,207291c0a,207291c0b,4.86335722982883,5.30664277017117,1.218872215465347,1.32997004420943,10.17,2.5488422596747773,10.17,2.5488422596747773,0.0,0.0,5.085,1.2744211298373886,0.97,1,0.88,1.05,2,0.208,wye,True
207292c0,sx3179682c.1.2,C,variable,207292c0a,207292c0b,4.72984499931335,1.37015500068665,1.1854108963580416,0.3433932121981177,6.1000000000000005,1.5288041085561592,6.1,1.5288041085561592,-8.881784197001252e-16,0.0,3.05,0.7644020542780796,0.97,1,0.88,1.05,2,0.208,wye,True
218472a0,sx2936270a.1.2,A,variable,218472a0a,218472a0b,4.868102825284,4.001897174716,1.220061573798037,1.0029699742172307,8.870000000000001,2.2230315480152676,8.87,2.2230315480152676,-1.7763568394002505e-15,0.0,4.435,1.1115157740076338,0.97,1,0.88,1.05,2,0.208,wye,True
218473a0,sx3086078a.1.2,A,variable,218473a0a,218473a0b,1.51733362078667,7.35266637921333,0.3802796513949269,1.842751896620341,8.870000000000001,2.2230315480152676,8.87,2.2230315480152676,-1.7763568394002505e-15,0.0,4.435,1.1115157740076338,0.97,1,0.88,1.05,2,0.208,wye,True
218474a0,sx3217056a.1.2,A,variable,218474a0a,218474a0b,11.7821743142605,5.95782568573952,2.9528912294043117,1.4931718666262288,17.74000000000002,4.4460630960305405,17.74,4.446063096030535,-2.1316282072803006e-14,-5.329070518200751e-15,8.87,2.2230315480152676,0.97,1,0.88,1.05,2,0.208,wye,True
218475a0,sx3217057a.1.2,A,variable,218475a0a,218475a0b,1.9275314450264,1.6224685549736,0.48308491680779525,0.4066289496470188,3.55,0.8897138664548141,3.55,0.889713866454814,0.0,-1.1102230246251565e-16,1.775,0.444856933227407,0.97,1,0.88,1.05,2,0.208,wye,True
223655c0,sx2936268c.1.2,C,variable,223655c0a,223655c0b,3.17055389285088,2.92944610714912,0.7946157078342869,0.7341884007218723,6.1,1.5288041085561592,6.1,1.5288041085561592,0.0,0.0,3.05,0.7644020542780796,0.97,1,0.88,1.05,2,0.208,wye,True
223658a0,sx2823592a.1.2,A,variable,223658a0a,223658a0b,1.21636754393578,0.553632456064224,0.3048504424071123,0.13875337269852836,1.770000000000004,0.4436038151056406,1.77,0.4436038151056397,-3.9968028886505635e-15,-9.43689570931383e-16,0.885,0.22180190755281984,0.97,1,0.88,1.05,2,0.208,wye,True
223660c0,sx3160863c.1.2,C,variable,223660c0a,223660c0b,0.480949193239212,5.61905080676079,0.12053722993948811,1.4082668786166719,6.100000000000002,1.52880410855616,6.1,1.5288041085561592,-2.6645352591003757e-15,-6.661338147750939e-16,3.05,0.7644020542780796,0.97,1,0.88,1.05,2,0.208,wye,True
223661c0,sx2730108c.1.2,C,variable,223661c0a,223661c0b,4.02298564910889,2.07701435089111,1.008255244101662,0.5205488644544973,6.1,1.5288041085561592,6.1,1.5288041085561592,0.0,0.0,3.05,0.7644020542780796,0.97,1,0.88,1.05,2,0.208,wye,True
223662c0,sx2786204c.1.2,C,variable,223662c0a,223662c0b,5.16334467053413,10.0966553294659,1.2940561551154306,2.53046035251851,15.26000000000003,3.8245165076339407,15.26,3.824516507633933,-3.019806626980426e-14,-7.549516567451064e-15,7.63,1.9122582538169666,0.97,1,0.88,1.05,2,0.208,wye,True
223663c0,sx2936216c.1.2,C,variable,223663c0a,223663c0b,3.97553170561791,0.0944682943820951,0.996362164794088,0.023675986324531103,4.070000000000005,1.0200381511186192,4.07,1.0200381511186178,-4.440892098500626e-15,-1.3322676295501878e-15,2.035,0.5100190755593089,0.97,1,0.88,1.05,2,0.208,wye,True
247036c0,sx3029498c.1.2,C,variable,247036c0a,247036c0b,0.911813089251518,3.15818691074848,0.22852190116114832,0.7915162499574689,4.069999999999998,1.0200381511186172,4.07,1.0200381511186178,2.6645352591003757e-15,6.661338147750939e-16,2.035,0.5100190755593089,0.97,1,0.88,1.05,2,0.208,wye,True
247056a0,sx2991912a.1.2,A,variable,247056a0a,247056a0b,2.29926190376282,3.02073809623718,0.5762493516588945,0.7570683299015594,5.32,1.333317681560454,5.32,1.3333176815604537,0.0,-2.220446049250313e-16,2.66,0.6666588407802269,0.97,1,0.88,1.05,2,0.208,wye,True
247057a0,sx3104128a.1.2,A,variable,247057a0a,247057a0b,3.43429150342941,1.88570849657059,0.8607145836758019,0.4726030978846518,5.32,1.3333176815604537,5.32,1.3333176815604537,0.0,0.0,2.66,0.6666588407802269,0.97,1,0.88,1.05,2,0.208,wye,True
247058a0,sx2673315a.1.2,A,variable,247058a0a,247058a0b,1.52472663521767,2.02527336478233,0.3821325154665217,0.5075813509882924,3.55,0.8897138664548141,3.55,0.889713866454814,0.0,-1.1102230246251565e-16,1.775,0.444856933227407,0.97,1,0.88,1.05,2,0.208,wye,True
247059a0,sx2766721a.1.2,A,variable,247059a0a,247059a0b,8.80876093804836,0.0612390619516372,2.207683592356941,0.015347955658325921,8.869999999999997,2.223031548015267,8.87,2.2230315480152676,1.7763568394002505e-15,4.440892098500626e-16,4.435,1.1115157740076338,0.97,1,0.88,1.05,2,0.208,wye,True
247060a0,sx2991906a.1.2,A,variable,247060a0a,247060a0b,3.52660758495331,0.023392415046692,0.883851174613432,0.005862691841382566,3.550000000000002,0.8897138664548145,3.55,0.889713866454814,-2.220446049250313e-15,-5.551115123125783e-16,1.775,0.444856933227407,0.97,1,0.88,1.05,2,0.208,wye,True
247061a0,sx2879054a.1.2,A,variable,247061a0a,247061a0b,5.38110441029072,3.48889558970928,1.3486318903314953,0.8743996576837724,8.870000000000001,2.2230315480152676,8.87,2.2230315480152676,-1.7763568394002505e-15,0.0,4.435,1.1115157740076338,0.97,1,0.88,1.05,2,0.208,wye,True
247084b0,sx3254211b.1.2,B,variable,247084b0a,247084b0b,8.38545623421669,1.34454376578331,2.1015934332767765,0.33697443168247454,9.73,2.438567864959251,9.73,2.438567864959251,0.0,0.0,4.865,1.2192839324796254,0.97,1,0.88,1.05,2,0.208,wye,True
247100b0,sx2729407b.1.2,B,variable,247100b0a,247100b0b,5.83493074893951,0.00506925106048595,1.4623714921507198,0.0012704740735366537,5.839999999999996,1.4636419662242566,5.84,1.4636419662242575,3.552713678800501e-15,8.881784197001252e-16,2.92,0.7318209831121287,0.97,1,0.88,1.05,2,0.208,wye,True
247105b0,sx2691942b.1.2,B,variable,247105b0a,247105b0b,1.84758275985718,3.99241724014282,0.4630478875683909,1.0005940786558665,5.84,1.4636419662242575,5.84,1.4636419662242575,0.0,0.0,2.92,0.7318209831121287,0.97,1,0.88,1.05,2,0.208,wye,True
247122b0,sx3197629b.1.2,B,variable,247122b0a,247122b0b,5.04927028179169,0.790729718208313,1.2654664183628939,0.19817554786136443,5.840000000000003,1.4636419662242584,5.84,1.4636419662242575,-3.552713678800501e-15,-8.881784197001252e-16,2.92,0.7318209831121287,0.97,1,0.88,1.05,2,0.208,wye,True
247126b0,sx2879065b.1.2,B,variable,247126b0a,247126b0b,2.55799276232719,1.33200723767281,0.6410934171643815,0.3338324815706119,3.8899999999999997,0.9749258987349934,3.89,0.9749258987349935,4.440892098500626e-16,1.1102230246251565e-16,1.945,0.48746294936749673,0.97,1,0.88,1.05,2,0.208,wye,True
247160b0,sx0247160b.1.2,B,variable,247160b0a,247160b0b,0.894048733711243,4.94595126628876,0.22406973399134097,1.2395722322329172,5.840000000000003,1.4636419662242581,5.84,1.4636419662242575,-3.552713678800501e-15,-6.661338147750939e-16,2.92,0.7318209831121287,0.97,1,0.88,1.05,2,0.208,wye,True
247162b0,sx0247162b.1.2,B,variable,247162b0a,247162b0b,2.80735771179199,3.03264228820801,0.7035901645859692,0.7600518016382882,5.84,1.4636419662242575,5.84,1.4636419662242575,0.0,0.0,2.92,0.7318209831121287,0.97,1,0.88,1.05,2,0.208,wye,True
247164b0,sx2766732b.1.2,B,variable,247164b0a,247164b0b,2.88989612519741,1.00010387480259,0.7242762409020206,0.2506496578329729,3.89,0.9749258987349935,3.89,0.9749258987349935,0.0,0.0,1.945,0.48746294936749673,0.97,1,0.88,1.05,2,0.208,wye,True
247170b0,sx2897784b.1.2,B,variable,247170b0a,247170b0b,2.31484323382378,12.2751567661762,0.5801544010710199,3.0764442782460844,14.58999999999998,3.656598679317104,14.59,3.656598679317109,1.9539925233402755e-14,4.884981308350689e-15,7.295,1.8282993396585545,0.97,1,0.88,1.05,2,0.208,wye,True
247171b0,sx0247171b.1.2,B,variable,247171b0a,247171b0b,2.87268362522125,2.96731637477875,0.7199623817738114,0.7436795844504461,5.84,1.4636419662242575,5.84,1.4636419662242575,0.0,0.0,2.92,0.7318209831121287,0.97,1,0.88,1.05,2,0.208,wye,True
247184c0,sx2936279c.1.2,C,variable,247184c0a,247184c0b,1.91365693330765,8.25634306669235,0.4796076363947075,2.0692346232800696,10.17,2.5488422596747773,10.17,2.5488422596747773,0.0,0.0,5.085,1.2744211298373886,0.97,1,0.88,1.05,2,0.208,wye,True
247185b0,sx3179678b.1.2,B,variable,247185b0a,247185b0b,4.08162429332733,1.75837570667267,1.022951473642861,0.44069049258139636,5.84,1.4636419662242575,5.84,1.4636419662242575,0.0,0.0,2.92,0.7318209831121287,0.97,1,0.88,1.05,2,0.208,wye,True
251828b0,sx3179650b.1.2,B,variable,251828b0a,251828b0b,1.78434782981873,4.05565217018127,0.4471997202164166,1.016442246007841,5.84,1.4636419662242577,5.84,1.4636419662242575,0.0,-2.220446049250313e-16,2.92,0.7318209831121287,0.97,1,0.88,1.05,2,0.208,wye,True
251855c0,sx2730107c.1.2,C,variable,251855c0a,251855c0b,2.60943734228611,7.56056265771389,0.6539866442470278,1.8948556154277492,10.17,2.548842259674777,10.17,2.5488422596747773,0.0,4.440892098500626e-16,5.085,1.2744211298373886,0.97,1,0.88,1.05,2,0.208,wye,True
251856c0,sx3048888c.1.2,C,variable,251856c0a,251856c0b,3.22170386314392,2.87829613685608,0.8074350987747009,0.7213690097814585,6.1,1.5288041085561592,6.1,1.5288041085561592,0.0,0.0,3.05,0.7644020542780796,0.97,1,0.88,1.05,2,0.208,wye,True
251857c0,sx3064514c.1.2,C,variable,251857c0a,251857c0b,0.163874715566635,5.93612528443336,0.04107087515520386,1.4877332334009543,6.099999999999995,1.5288041085561581,6.1,1.5288041085561592,4.440892098500626e-15,1.1102230246251565e-15,3.05,0.7644020542780796,0.97,1,0.88,1.05,2,0.208,wye,True
251858c0,sx2861158c.1.2,C,variable,251858c0a,251858c0b,5.36943990826607,4.80056009173393,1.3457084905577992,1.203133769116978,10.17,2.5488422596747773,10.17,2.5488422596747773,0.0,0.0,5.085,1.2744211298373886,0.97,1,0.88,1.05,2,0.208,wye,True
251859c0,sx2952007c.1.2,C,variable,251859c0a,251859c0b,2.24143562614918,7.92856437385082,0.5617567203804941,1.987085539294283,10.17,2.5488422596747773,10.17,2.5488422596747773,0.0,0.0,5.085,1.2744211298373886,0.97,1,0.88,1.05,2,0.208,wye,True
251862c0,sx3254873c.1.2,C,variable,251862c0a,251862c0b,6.05969550609589,0.0403044939041139,1.518702850216179,0.010101258339981312,6.100000000000004,1.5288041085561603,6.1,1.5288041085561592,-4.440892098500626e-15,-1.1102230246251565e-15,3.05,0.7644020542780796,0.97,1,0.88,1.05,2,0.208,wye,True
251863c0,sx2745811c.1.2,C,variable,251863c0a,251863c0b,8.2485082000494,1.9214917999506,2.0672710206056877,0.4815712390690897,10.17,2.5488422596747773,10.17,2.5488422596747773,0.0,0.0,5.085,1.2744211298373886,0.97,1,0.88,1.05,2,0.208,wye,True
251865c0,sx3142050c.1.2,C,variable,251865c0a,251865c0b,5.40203474760056,0.697965252399444,1.353877527327028,0.17492658122913224,6.100000000000003,1.5288041085561603,6.1,1.5288041085561592,-3.552713678800501e-15,-1.1102230246251565e-15,3.05,0.7644020542780796,0.97,1,0.88,1.05,2,0.208,wye,True
251867c0,sx2861157c.1.2,C,variable,251867c0a,251867c0b,2.71486888468266,7.45513111531734,0.6804102795236276,1.8684319801511495,10.17,2.5488422596747773,10.17,2.5488422596747773,0.0,0.0,5.085,1.2744211298373886,0.97,1,0.88,1.05,2,0.208,wye,True
260457b0,sx3086079b.1.2,B,variable,260457b0a,260457b0b,2.90031623840332,0.98968376159668,0.7268877674398592,0.24803813129513425,3.8899999999999997,0.9749258987349934,3.89,0.9749258987349935,4.440892098500626e-16,1.1102230246251565e-16,1.945,0.48746294936749673,0.97,1,0.88,1.05,2,0.208,wye,True
260458b0,sx2936276b.1.2,B,variable,260458b0a,260458b0b,0.501638917326927,3.38836108267307,0.12572256357722453,0.8492033351577681,3.889999999999997,0.9749258987349927,3.89,0.9749258987349935,3.1086244689504383e-15,7.771561172376096e-16,1.945,0.48746294936749673,0.97,1,0.88,1.05,2,0.208,wye,True
260461b0,sx2861223b.1.2,B,variable,260461b0a,260461b0b,4.46131198048592,5.26868801951408,1.118110177920933,1.320457687038318,9.73,2.438567864959251,9.73,2.438567864959251,0.0,0.0,4.865,1.2192839324796254,0.97,1,0.88,1.05,2,0.208,wye,True
260463b0,sx3086075b.1.2,B,variable,260463b0a,260463b0b,1.2749899148941,4.5650100851059,0.31954259348488,1.1440993727393776,5.84,1.4636419662242575,5.84,1.4636419662242575,0.0,0.0,2.92,0.7318209831121287,0.97,1,0.88,1.05,2,0.208,wye,True
260464a0,sx2730187a.1.2,A,variable,260464a0a,260464a0b,1.74190418720245,11.5580958127975,0.43656234067316113,2.8967318632279606,13.299999999999951,3.3332942039011217,13.3,3.3332942039011346,4.973799150320701e-14,1.2878587085651816e-14,6.65,1.6666471019505673,0.97,1,0.88,1.05,2,0.208,wye,True
260467a0,sx3104856a.1.2,A,variable,260467a0a,260467a0b,2.68280781507492,2.63719218492508,0.672375018057887,0.6609426635025667,5.32,1.3333176815604537,5.32,1.3333176815604537,0.0,0.0,2.66,0.6666588407802269,0.97,1,0.88,1.05,2,0.208,wye,True
260473a0,sx2861222a.1.2,A,variable,260473a0a,260473a0b,13.1408666014671,0.159133398532868,3.293411614805134,0.03988258909599235,13.299999999999967,3.333294203901126,13.3,3.3332942039011346,3.375077994860476e-14,8.43769498715119e-15,6.65,1.6666471019505673,0.97,1,0.88,1.05,2,0.208,wye,True
260474a0,sx2917330a.1.2,A,variable,260474a0a,260474a0b,8.10004136025906,0.769958639740944,2.030061723121127,0.19296982489414213,8.870000000000005,2.223031548015269,8.87,2.2230315480152676,-5.329070518200751e-15,-1.3322676295501878e-15,4.435,1.1115157740076338,0.97,1,0.88,1.05,2,0.208,wye,True
260475a0,sx2879794a.1.2,A,variable,260475a0a,260475a0b,5.93184571266174,7.36815428733826,1.48666067161287,1.8466335322882643,13.3,3.3332942039011346,13.3,3.3332942039011346,0.0,0.0,6.65,1.6666471019505673,0.97,1,0.88,1.05,2,0.208,wye,True
260476a0,sx2936271a.1.2,A,variable,260476a0a,260476a0b,3.24633306264877,2.07366693735123,0.8136077580195311,0.5197099235409227,5.32,1.333317681560454,5.32,1.3333176815604537,0.0,-2.220446049250313e-16,2.66,0.6666588407802269,0.97,1,0.88,1.05,2,0.208,wye,True
260479a0,sx2955074a.1.2,A,variable,260479a0a,260479a0b,10.2035141587257,3.09648584127426,2.5572416996017693,0.7760525042993548,13.29999999999996,3.333294203901124,13.3,3.3332942039011346,4.085620730620576e-14,1.0658141036401503e-14,6.65,1.6666471019505673,0.97,1,0.88,1.05,2,0.208,wye,True
260480c0,sx3030199c.1.2,C,variable,260480c0a,260480c0b,5.44079144775867,4.72920855224133,1.3635908719886343,1.1852513876861428,10.17,2.5488422596747773,10.17,2.5488422596747773,0.0,0.0,5.085,1.2744211298373886,0.97,1,0.88,1.05,2,0.208,wye,True
260481c0,sx2730163c.1.2,C,variable,260481c0a,260481c0b,9.69150393247604,0.478496067523956,2.42891984099304,0.11992241868173596,10.169999999999996,2.548842259674776,10.17,2.5488422596747773,3.552713678800501e-15,1.3322676295501878e-15,5.085,1.2744211298373886,0.97,1,0.88,1.05,2,0.208,wye,True
260484a0,sx2992624a.1.2,A,variable,260484a0a,260484a0b,1.18332342863083,4.13667657136917,0.29656880646583184,1.0367488750946219,5.32,1.3333176815604537,5.32,1.3333176815604537,0.0,0.0,2.66,0.6666588407802269,0.97,1,0.88,1.05,2,0.208,wye,True
260487a0,sx2692654a.1.2,A,variable,260487a0a,260487a0b,4.15685058116913,1.16314941883087,1.0418049585484304,0.29151272301202347,5.32,1.333317681560454,5.32,1.3333176815604537,0.0,-2.220446049250313e-16,2.66,0.6666588407802269,0.97,1,0.88,1.05,2,0.208,wye,True
260488a0,sx2842379a.1.2,A,variable,260488a0a,260488a0b,2.52633565068245,10.7736643493176,0.6331593971074144,2.7001348067937325,13.30000000000005,3.333294203901147,13.3,3.3332942039011346,-4.973799150320701e-14,-1.2434497875801753e-14,6.65,1.6666471019505673,0.97,1,0.88,1.05,2,0.208,wye,True
260491c0,sx2805031c.1.2,C,variable,260491c0a,260491c0b,2.22069662094116,13.0393033790588,0.5565590357297747,3.2679574719041486,15.25999999999996,3.8245165076339234,15.26,3.824516507633933,3.907985046680551e-14,9.769962616701378e-15,7.63,1.9122582538169666,0.97,1,0.88,1.05,2,0.208,wye,True
260494b0,sx3068944b.1.2,B,variable,260494b0a,260494b0b,6.16129498064518,8.42870501935482,1.5441660787601301,2.112432600556979,14.59,3.656598679317109,14.59,3.656598679317109,0.0,0.0,7.295,1.8282993396585545,0.97,1,0.88,1.05,2,0.208,wye,True
260495b0,sx2767407b.1.2,B,variable,260495b0a,260495b0b,0.385108519792557,3.50489148020744,0.09651729299981018,0.8784086057351824,3.889999999999997,0.9749258987349926,3.89,0.9749258987349935,3.1086244689504383e-15,8.881784197001252e-16,1.945,0.48746294936749673,0.97,1,0.88,1.05,2,0.208,wye,True
260496b0,sx2879767b.1.2,B,variable,260496b0a,260496b0b,2.86043712198734,1.02956287801266,0.7168931187476724,0.25803277998732105,3.8899999999999997,0.9749258987349934,3.89,0.9749258987349935,4.440892098500626e-16,1.1102230246251565e-16,1.945,0.48746294936749673,0.97,1,0.88,1.05,2,0.208,wye,True
260500b0,sx2711224b.1.2,B,variable,260500b0a,260500b0b,1.02893800973892,2.86106199026108,0.25787617323581286,0.7170497254991806,3.89,0.9749258987349934,3.89,0.9749258987349935,0.0,1.1102230246251565e-16,1.945,0.48746294936749673,0.97,1,0.88,1.05,2,0.208,wye,True
260501b0,sx3142098b.1.2,B,variable,260501b0a,260501b0b,0.486125466227531,9.24387453377247,0.12183452623646358,2.3167333387227873,9.73,2.438567864959251,9.73,2.438567864959251,0.0,0.0,4.865,1.2192839324796254,0.97,1,0.88,1.05,2,0.208,wye,True
260502b0,sx2748839b.1.2,B,variable,260502b0a,260502b0b,1.99224375128746,1.89775624871254,0.4993033495432138,0.4756225491917796,3.8899999999999997,0.9749258987349934,3.89,0.9749258987349935,4.440892098500626e-16,1.1102230246251565e-16,1.945,0.48746294936749673,0.97,1,0.88,1.05,2,0.208,wye,True
260503b0,sx2917310b.1.2,B,variable,260503b0a,260503b0b,5.0076086473465,0.832391352653503,1.255025028541751,0.20861693768250725,5.840000000000003,1.4636419662242584,5.84,1.4636419662242575,-3.552713678800501e-15,-8.881784197001252e-16,2.92,0.7318209831121287,0.97,1,0.88,1.05,2,0.208,wye,True
260505c0,sx2861218c.1.2,C,variable,260505c0a,260505c0b,0.644601302146912,9.52539869785309,0.1615523146070245,2.387289945067753,10.170000000000002,2.5488422596747773,10.17,2.5488422596747773,-1.7763568394002505e-15,0.0,5.085,1.2744211298373886,0.97,1,0.88,1.05,2,0.208,wye,True
260508a0,sx2955081a.1.2,A,variable,260508a0a,260508a0b,2.16784402608871,3.15215597391129,0.5433129268513681,0.7900047547090855,5.32,1.3333176815604535,5.32,1.3333176815604537,0.0,2.220446049250313e-16,2.66,0.6666588407802269,0.97,1,0.88,1.05,2,0.208,wye,True
260511c0,sx3160878c.1.2,C,variable,260511c0a,260511c0b,2.60537000894547,3.49462999105453,0.6529672744237429,0.8758368341324164,6.1,1.5288041085561592,6.1,1.5288041085561592,0.0,0.0,3.05,0.7644020542780796,0.97,1,0.88,1.05,2,0.208,wye,True
260513c0,sx2917336c.1.2,C,variable,260513c0a,260513c0b,2.43954864144325,3.66045135855675,0.611408522305088,0.9173955862510713,6.1,1.5288041085561592,6.1,1.5288041085561592,0.0,0.0,3.05,0.7644020542780796,0.97,1,0.88,1.05,2,0.208,wye,True
260514c0,sx2674047c.1.2,C,variable,260514c0a,260514c0b,5.02606914043426,1.07393085956573,1.2596516642267577,0.26915244432939933,6.099999999999991,1.528804108556157,6.1,1.5288041085561592,8.881784197001252e-15,2.220446049250313e-15,3.05,0.7644020542780796,0.97,1,0.88,1.05,2,0.208,wye,True
260515a0,sx3160865a.1.2,A,variable,260515a0a,260515a0b,1.88027780115604,6.98972219884396,0.4712420373170976,1.7517895106981702,8.870000000000001,2.2230315480152676,8.87,2.2230315480152676,-1.7763568394002505e-15,0.0,4.435,1.1115157740076338,0.97,1,0.88,1.05,2,0.208,wye,True
260517c0,sx2767408c.1.2,C,variable,260517c0a,260517c0b,0.0310380816459656,6.06896191835403,0.007778876515090775,1.5210252320410675,6.099999999999995,1.5288041085561583,6.1,1.5288041085561592,4.440892098500626e-15,8.881784197001252e-16,3.05,0.7644020542780796,0.97,1,0.88,1.05,2,0.208,wye,True
260518c0,sx3104853c.1.2,C,variable,260518c0a,260518c0b,9.57633290827274,0.593667091727257,2.400055261486708,0.14878699818806831,10.169999999999996,2.5488422596747764,10.17,2.5488422596747773,3.552713678800501e-15,8.881784197001252e-16,5.085,1.2744211298373886,0.97,1,0.88,1.05,2,0.208,wye,True
260520b0,sx3254915b.1.2,B,variable,260520b0a,260520b0b,1.21278791427612,0.737212085723877,0.30395330264796516,0.18476276484129814,1.949999999999997,0.48871606748926333,1.95,0.48871606748926405,2.886579864025407e-15,7.216449660063518e-16,0.975,0.24435803374463202,0.97,1,0.88,1.05,2,0.208,wye,True
260521b0,sx3048963b.1.2,B,variable,260521b0a,260521b0b,4.66443326473236,1.17556673526764,1.1690171703621068,0.2946247958621506,5.84,1.4636419662242575,5.84,1.4636419662242575,0.0,0.0,2.92,0.7318209831121287,0.97,1,0.88,1.05,2,0.208,wye,True
260527b0,sx2711226b.1.2,B,variable,260527b0a,260527b0b,5.37856595158577,4.35143404841423,1.3479956926105892,1.0905721723486617,9.73,2.438567864959251,9.73,2.438567864959251,0.0,0.0,4.865,1.2192839324796254,0.97,1,0.88,1.05,2,0.208,wye,True
260528c0,sx3217052c.1.2,C,variable,260528c0a,260528c0b,6.35585537731648,3.81414462268352,1.59292751052954,0.9559147491452373,10.17,2.5488422596747773,10.17,2.5488422596747773,0.0,0.0,5.085,1.2744211298373886,0.97,1,0.88,1.05,2,0.208,wye,True
260529c0,sx3217053c.1.2,C,variable,260529c0a,260529c0b,3.42973953008652,0.640260469913483,0.8595737516186465,0.16046439949997213,4.070000000000003,1.0200381511186185,4.07,1.0200381511186178,-2.6645352591003757e-15,-6.661338147750939e-16,2.035,0.5100190755593089,0.97,1,0.88,1.05,2,0.208,wye,True
260532c0,sx3086074c.1.2,C,variable,260532c0a,260532c0b,3.50269619822502,2.59730380177498,0.8778584162082705,0.6509456923478888,6.1,1.5288041085561592,6.1,1.5288041085561592,0.0,0.0,3.05,0.7644020542780796,0.97,1,0.88,1.05,2,0.208,wye,True
260535c0,sx3067507c.1.2,C,variable,260535c0a,260535c0b,2.48775819063187,12.7722418093681,0.6234909742511869,3.201025533382739,15.259999999999971,3.824516507633926,15.26,3.824516507633933,2.842170943040401e-14,7.105427357601002e-15,7.63,1.9122582538169666,0.97,1,0.88,1.05,2,0.208,wye,True
260542a0,sx2955078a.1.2,A,variable,260542a0a,260542a0b,2.0749521535635,6.7950478464365,0.5200320290861196,1.702999518929148,8.87,2.2230315480152676,8.87,2.2230315480152676,0.0,0.0,4.435,1.1115157740076338,0.97,1,0.88,1.05,2,0.208,wye,True
260543c0,sx2955077c.1.2,C,variable,260543c0a,260543c0b,9.62785753726959,0.542142462730407,2.4129685507493663,0.13587370892540995,10.169999999999996,2.5488422596747764,10.17,2.5488422596747773,3.552713678800501e-15,8.881784197001252e-16,5.085,1.2744211298373886,0.97,1,0.88,1.05,2,0.208,wye,True
260551c0,sx3160872c.1.2,C,variable,260551c0a,260551c0b,10.9791953384876,4.28080466151238,2.7516457282164715,1.0728707794174566,15.25999999999998,3.824516507633928,15.26,3.824516507633933,1.9539925233402755e-14,5.329070518200751e-15,7.63,1.9122582538169666,0.97,1,0.88,1.05,2,0.208,wye,True
260552a0,sx3198348a.1.2,A,variable,260552a0a,260552a0b,10.7399688124657,7.00003118753433,2.6916899092233733,1.7543731868071697,17.74000000000003,4.446063096030543,17.74,4.446063096030535,-3.197442310920451e-14,-7.993605777301127e-15,8.87,2.2230315480152676,0.97,1,0.88,1.05,2,0.208,wye,True
260553c0,sx2711225c.1.2,C,variable,260553c0a,260553c0b,3.18574243187904,2.91425756812096,0.7984223145341585,0.7303817940220009,6.1,1.5288041085561592,6.1,1.5288041085561592,0.0,0.0,3.05,0.7644020542780796,0.97,1,0.88,1.05,2,0.208,wye,True
260554c0,sx3030200c.1.2,C,variable,260554c0a,260554c0b,2.96024167537689,3.13975832462311,0.7419064976451406,0.7868976109110187,6.1,1.5288041085561592,6.1,1.5288041085561592,0.0,0.0,3.05,0.7644020542780796,0.97,1,0.88,1.05,2,0.208,wye,True
260555a0,sx3048962a.1.2,A,variable,260555a0a,260555a0b,1.90191990733147,11.3980800926685,0.4766660604054264,2.8566281434957004,13.29999999999997,3.3332942039011266,13.3,3.3332942039011346,3.019806626980426e-14,7.993605777301127e-15,6.65,1.6666471019505673,0.97,1,0.88,1.05,2,0.208,wye,True
260558c0,sx3160861c.1.2,C,variable,260558c0a,260558c0b,1.90033051133156,2.16966948866844,0.47626772021939606,0.5437704308992216,4.07,1.0200381511186176,4.07,1.0200381511186178,0.0,2.220446049250313e-16,2.035,0.5100190755593089,0.97,1,0.88,1.05,2,0.208,wye,True
260561c0,sx3104850c.1.2,C,variable,260561c0a,260561c0b,8.04962442934513,2.12037557065487,2.017426049166699,0.5314162105080781,10.17,2.5488422596747773,10.17,2.5488422596747773,0.0,0.0,5.085,1.2744211298373886,0.97,1,0.88,1.05,2,0.208,wye,True
260562a0,sx3251799a.1.2,A,variable,260562a0a,260562a0b,4.87104940414429,8.42895059585571,1.2208000560714463,2.112494147829688,13.3,3.333294203901134,13.3,3.3332942039011346,0.0,4.440892098500626e-16,6.65,1.6666471019505673,0.97,1,0.88,1.05,2,0.208,wye,True
260567c0,sx2936211c.1.2,C,variable,260567c0a,260567c0b,4.17217430472374,1.92782569527626,1.0456454456842772,0.4831586628718821,6.1,1.5288041085561592,6.1,1.5288041085561592,0.0,0.0,3.05,0.7644020542780796,0.97,1,0.88,1.05,2,0.208,wye,True
260568c0,sx2842329c.1.2,C,variable,260568c0a,260568c0b,3.30933228731155,2.79066771268845,0.8293968520359755,0.699407256520184,6.1,1.5288041085561594,6.1,1.5288041085561592,0.0,-2.220446049250313e-16,3.05,0.7644020542780796,0.97,1,0.88,1.05,2,0.208,wye,True
260569c0,sx3104796c.1.2,C,variable,260569c0a,260569c0b,7.31469514667988,2.85530485332012,1.8332354087016391,0.7156068509731379,10.17,2.5488422596747773,10.17,2.5488422596747773,0.0,0.0,5.085,1.2744211298373886,0.97,1,0.88,1.05,2,0.208,wye,True
260572c0,sx3236004c.1.2,C,variable,260572c0a,260572c0b,2.25342886447906,3.84657113552093,0.5647625092384635,0.9640415993176933,6.09999999999999,1.5288041085561568,6.1,1.5288041085561592,9.769962616701378e-15,2.4424906541753444e-15,3.05,0.7644020542780796,0.97,1,0.88,1.05,2,0.208,wye,True
260573c0,sx3160896c.1.2,C,variable,260573c0a,260573c0b,3.4484604537487,2.6515395462513,0.8642656573581066,0.6645384511980528,6.1,1.5288041085561592,6.1,1.5288041085561592,0.0,0.0,3.05,0.7644020542780796,0.97,1,0.88,1.05,2,0.208,wye,True
260574c0,sx3123452c.1.2,C,variable,260574c0a,260574c0b,4.83920038104057,5.33079961895943,1.2128179384690745,1.3360243212057026,10.17,2.5488422596747773,10.17,2.5488422596747773,0.0,0.0,5.085,1.2744211298373886,0.97,1,0.88,1.05,2,0.208,wye,True
260575b0,sx3254869b.1.2,B,variable,260575b0a,260575b0b,2.55273636341095,3.28726363658905,0.6397760394169458,0.8238659268073117,5.84,1.4636419662242575,5.84,1.4636419662242575,0.0,0.0,2.92,0.7318209831121287,0.97,1,0.88,1.05,2,0.208,wye,True
260576c0,sx3030126c.1.2,C,variable,260576c0a,260576c0b,9.27847522258759,0.891524777412414,2.3254050887587594,0.22343717091601867,10.170000000000003,2.548842259674778,10.17,2.5488422596747773,-3.552713678800501e-15,-8.881784197001252e-16,5.085,1.2744211298373886,0.97,1,0.88,1.05,2,0.208,wye,True
260577c0,sx2767341c.1.2,C,variable,260577c0a,260577c0b,1.47948966145515,13.7805103385448,0.37079506114737615,3.4537214464865444,15.25999999999995,3.8245165076339207,15.26,3.824516507633933,4.973799150320701e-14,1.2434497875801753e-14,7.63,1.9122582538169666,0.97,1,0.88,1.05,2,0.208,wye,True
260581c0,sx3254870c.1.2,C,variable,260581c0a,260581c0b,6.60783014416695,3.56216985583305,1.656078339843225,0.8927639198315522,10.17,2.5488422596747773,10.17,2.5488422596747773,0.0,0.0,5.085,1.2744211298373886,0.97,1,0.88,1.05,2,0.208,wye,True
260586b0,sx3048887b.1.2,B,variable,260586b0a,260586b0b,12.532754740119,2.05724525988102,3.141004416101739,0.5155942632153749,14.59000000000002,3.656598679317114,14.59,3.656598679317109,-1.9539925233402755e-14,-4.884981308350689e-15,7.295,1.8282993396585545,0.97,1,0.88,1.05,2,0.208,wye,True
260589b0,sx2955005b.1.2,B,variable,260589b0a,260589b0b,0.384714488983154,5.45528551101685,0.09641853957025068,1.3672234266540078,5.840000000000004,1.4636419662242584,5.84,1.4636419662242575,-4.440892098500626e-15,-8.881784197001252e-16,2.92,0.7318209831121287,0.97,1,0.88,1.05,2,0.208,wye,True
260590b0,sx3216988b.1.2,B,variable,260590b0a,260590b0b,6.1179302996397,3.6120697003603,1.5332978652376046,0.9052699997216462,9.73,2.438567864959251,9.73,2.438567864959251,0.0,0.0,4.865,1.2192839324796254,0.97,1,0.88,1.05,2,0.208,wye,True
260591b0,sx3179607b.1.2,B,variable,260591b0a,260591b0b,3.18160814166069,6.54839185833931,0.7973861637355065,1.6411817012237444,9.73,2.438567864959251,9.73,2.438567864959251,0.0,0.0,4.865,1.2192839324796254,0.97,1,0.88,1.05,2,0.208,wye,True
260594a0,sx2898457a.1.2,A,variable,260594a0a,260594a0b,0.91989309489727,2.63010690510273,0.23054694146088317,0.6591669249939309,3.5500000000000003,0.8897138664548141,3.55,0.889713866454814,-4.440892098500626e-16,-1.1102230246251565e-16,1.775,0.444856933227407,0.97,1,0.88,1.05,2,0.208,wye,True
260595a0,sx2767340a.1.2,A,fixed,260595a0a,260595a0b,21.8076286315918,4.7923713684082,5.465506926204013,1.2010814815982558,26.6,6.666588407802268,26.6,6.666588407802269,0.0,8.881784197001252e-16,13.3,3.3332942039011346,0.97,1,0.88,1.05,2,0.208,wye,True
260595b0,sx2767340b.1.2,B,fixed,260595b0a,260595b0b,21.9974312126636,7.18256878733635,5.513075936983871,1.800121421650335,29.17999999999995,7.313197358634206,29.18,7.313197358634218,4.973799150320701e-14,1.2434497875801753e-14,14.59,3.656598679317109,0.97,1,0.88,1.05,2,0.208,wye,True
260595c0,sx2767340c.1.2,C,fixed,260595c0a,260595c0b,1.24677970409393,29.2732202959061,0.312472448210366,7.336560567057507,30.52000000000003,7.649033015267873,30.52,7.649033015267866,-3.197442310920451e-14,-7.105427357601002e-15,15.26,3.824516507633933,0.97,1,0.88,1.05,2,0.208,wye,True
260598a0,sx3067478a.1.2,A,variable,260598a0a,260598a0b,1.332736068964,11.967263931036,0.33401514391035214,2.999279059990782,13.299999999999999,3.333294203901134,13.3,3.3332942039011346,1.7763568394002505e-15,4.440892098500626e-16,6.65,1.6666471019505673,0.97,1,0.88,1.05,2,0.208,wye,True
260601c0,sx2730149c.1.2,C,variable,260601c0a,260601c0b,3.65142891407013,2.44857108592987,0.9151343485133066,0.6136697600428528,6.1,1.5288041085561592,6.1,1.5288041085561592,0.0,0.0,3.05,0.7644020542780796,0.97,1,0.88,1.05,2,0.208,wye,True
260602b0,sx2989566b.1.2,B,variable,260602b0a,260602b0b,4.44756553173065,1.39243446826935,1.114664993111898,0.34897697311235953,5.84,1.4636419662242575,5.84,1.4636419662242575,0.0,0.0,2.92,0.7318209831121287,0.97,1,0.88,1.05,2,0.208,wye,True
260605a0,sx2973791a.1.2,A,variable,260605a0a,260605a0b,4.1816650223732,13.5583349776268,1.0480240437393002,3.398039052291235,17.74,4.446063096030535,17.74,4.446063096030535,0.0,0.0,8.87,2.2230315480152676,0.97,1,0.88,1.05,2,0.208,wye,True
260607b0,sx3029055b.1.2,B,variable,260607b0a,260607b0b,1.62748541533947,12.9625145846605,0.4078862933747884,3.248712385942313,14.58999999999997,3.6565986793171015,14.59,3.656598679317109,3.019806626980426e-14,7.549516567451064e-15,7.295,1.8282993396585545,0.97,1,0.88,1.05,2,0.208,wye,True
260620c0,sx3067506c.1.2,C,variable,260620c0a,260620c0b,0.108775820732117,3.96122417926788,0.02726179043390635,0.9927763606847108,4.069999999999997,1.0200381511186172,4.07,1.0200381511186178,3.552713678800501e-15,6.661338147750939e-16,2.035,0.5100190755593089,0.97,1,0.88,1.05,2,0.208,wye,True
...
